! https://www.fangzhenxiu.com/post/2130461/
! /PAGE,ILINE,ICHAR,BLINE,BCHAR,COMMA   ! 定义输出页面大小

FINISH$/CLEAR$/PREP7$A=0.8

B=1.0$L=8$BLC4,0,0,A,B,L

ET,1,SOLID185

MP,EX,1,2E11$MP,PRXY,1,0.3

ESIZE,0.2$VMESH,ALL

DA,1,ALL$SFA,4,1,PRES,1E5

/SOLU
SOLVE
/POST1
/PAGE,DEFA!缺省设置

NLIST!图1(A)

/PAGE,20000!屏显2万行

NLIST!图1(B)

PRNSOL,U!图2(A)

/PAGE,20000,,20000!页显2万行

PRNSOL,U!图2(B)

PRNSOL,S!图3(A)

/FORMAT,1,E,15,5

PRNSOL,S