$# LS-DYNA Keyword file created by LS-PrePost(R) V4.7.7 - 17Feb2020
$# Created on Jun-28-2024 (21:11:47)
$ solver: LS-RUN 2022R1
*KEYWORD
*TITLE
$#                                                                         title
                                                                                
$
$$$$$$$$$$$$$$$$$$$$$$$$$$$$$$$$$$$$$$$$$$$$$$$$$$$$$$$$$$$$$$$$$$$$$$$$$$$$$$$$
$                              CONTACT DEFINITIONS                             $
$$$$$$$$$$$$$$$$$$$$$$$$$$$$$$$$$$$$$$$$$$$$$$$$$$$$$$$$$$$$$$$$$$$$$$$$$$$$$$$$
$
$
$$$$$$$$$$$$$$$$$$$$$$$$$$$$$$$$$$$$$$$$$$$$$$$$$$$$$$$$$$$$$$$$$$$$$$$$$$$$$$$$
$                              CONTROL OPTIONS                                 $
$$$$$$$$$$$$$$$$$$$$$$$$$$$$$$$$$$$$$$$$$$$$$$$$$$$$$$$$$$$$$$$$$$$$$$$$$$$$$$$$
$
*CONTROL_ENERGY
$#    hgen      rwen    slnten     rylen     irgen     
         2         2         2         2         2
*CONTROL_SHELL
$#  wrpang     esort     irnxx    istupd    theory       bwc     miter      proj
      20.0         1        -1         1         2         2         1         0
$# rotascl    intgrd    lamsht    cstyp6    thshel      
       1.0         0         0         1         0
$# psstupd   sidt4tu     cntco    itsflg    irquad    w-mode   stretch      icrq
         0         0         0         0         2       0.0       0.0         0
*CONTROL_TERMINATION
$#  endtim    endcyc     dtmin    endeng    endmas     nosol     
       5.0         0       0.0       0.0       0.0         0
*CONTROL_TIMESTEP
$#  dtinit    tssfac      isdo    tslimt     dt2ms      lctm     erode     ms1st
       0.0       0.9         0       0.0       0.0         0         0         0
$#  dt2msf   dt2mslc     imscl    unused    unused     rmscl    unused      ihdo
       0.0         0         0                           0.0                   0
*DATABASE_BINARY_D3DUMP
$#    cycl      lcdt      beam     npltc    psetid      
    6415.0         0         0         0         0
$
$$$$$$$$$$$$$$$$$$$$$$$$$$$$$$$$$$$$$$$$$$$$$$$$$$$$$$$$$$$$$$$$$$$$$$$$$$$$$$$$
$                                 TIME HISTORY                                 $
$$$$$$$$$$$$$$$$$$$$$$$$$$$$$$$$$$$$$$$$$$$$$$$$$$$$$$$$$$$$$$$$$$$$$$$$$$$$$$$$
$
*DATABASE_BINARY_D3PLOT
$#      dt      lcdt      beam     npltc    psetid      
   0.01667         0         0         0         0
*DATABASE_BINARY_D3THDT
$#      dt      lcdt      beam     npltc    psetid      
       5.0         0         0         0         0
$
$$$$$$$$$$$$$$$$$$$$$$$$$$$$$$$$$$$$$$$$$$$$$$$$$$$$$$$$$$$$$$$$$$$$$$$$$$$$$$$$
$                              DATABASE OPTIONS                                $
$$$$$$$$$$$$$$$$$$$$$$$$$$$$$$$$$$$$$$$$$$$$$$$$$$$$$$$$$$$$$$$$$$$$$$$$$$$$$$$$
$
*DATABASE_EXTENT_BINARY
$#   neiph     neips    maxint    strflg    sigflg    epsflg    rltflg    engflg
         0         0         3         1         1         1         1         1
$#  cmpflg    ieverp    beamip     dcomp      shge     stssz    n3thdt   ialemat
         0         0         4         1         1         1         2         1
$
*DATABASE_FORMAT
$#   iform   ibinary       
         0         0
*BOUNDARY_PRESCRIBED_MOTION_SET
$#    nsid       dof       vad      lcid        sf       vid     death     birth
         1         1         1         1       1.0         0       0.0       0.0
*BOUNDARY_SPC_SET
$#    nsid       cid      dofx      dofy      dofz     dofrx     dofry     dofrz
         2         0         0         1         0         1         1         1
$
$
$$$$$$$$$$$$$$$$$$$$$$$$$$$$$$$$$$$$$$$$$$$$$$$$$$$$$$$$$$$$$$$$$$$$$$$$$$$$$$$$
$                                RIGID BOUNDRIES                               $
$$$$$$$$$$$$$$$$$$$$$$$$$$$$$$$$$$$$$$$$$$$$$$$$$$$$$$$$$$$$$$$$$$$$$$$$$$$$$$$$
$
$
$
$$$$$$$$$$$$$$$$$$$$$$$$$$$$$$$$$$$$$$$$$$$$$$$$$$$$$$$$$$$$$$$$$$$$$$$$$$$$$$$$
$                             BOUNDARY DEFINITIONS                             $
$$$$$$$$$$$$$$$$$$$$$$$$$$$$$$$$$$$$$$$$$$$$$$$$$$$$$$$$$$$$$$$$$$$$$$$$$$$$$$$$
$
*SET_NODE_LIST
$#     sid       da1       da2       da3       da4    solver      
         2       0.0       0.0       0.0       0.0MECH
$#    nid1      nid2      nid3      nid4      nid5      nid6      nid7      nid8
         1         2         3         4         5         6         0         0
$
$
$
$$$$$$$$$$$$$$$$$$$$$$$$$$$$$$$$$$$$$$$$$$$$$$$$$$$$$$$$$$$$$$$$$$$$$$$$$$$$$$$$
$                              PARTS DEFINITIONS                               $
$$$$$$$$$$$$$$$$$$$$$$$$$$$$$$$$$$$$$$$$$$$$$$$$$$$$$$$$$$$$$$$$$$$$$$$$$$$$$$$$
$
$
*PART
$#                                                                         title
Part          1 for Mat         1 and Elem Type         2
$#     pid     secid       mid     eosid      hgid      grav    adpopt      tmid
         1         1         1         0         0         0         0         0
$
$
$$$$$$$$$$$$$$$$$$$$$$$$$$$$$$$$$$$$$$$$$$$$$$$$$$$$$$$$$$$$$$$$$$$$$$$$$$$$$$$$
$                             SECTION DEFINITIONS                              $
$$$$$$$$$$$$$$$$$$$$$$$$$$$$$$$$$$$$$$$$$$$$$$$$$$$$$$$$$$$$$$$$$$$$$$$$$$$$$$$$
$
*SECTION_SHELL
$#   secid    elform      shrf       nip     propt   qr/irid     icomp     setyp
         1         2    0.8333         2       1.0         0         0         1
$#      t1        t2        t3        t4      nloc     marea      idof    edgset
       0.1       0.1       0.1       0.1       0.0       0.0       0.0         0
$
$
$$$$$$$$$$$$$$$$$$$$$$$$$$$$$$$$$$$$$$$$$$$$$$$$$$$$$$$$$$$$$$$$$$$$$$$$$$$$$$$$
$                             MATERIAL DEFINITIONS                             $
$$$$$$$$$$$$$$$$$$$$$$$$$$$$$$$$$$$$$$$$$$$$$$$$$$$$$$$$$$$$$$$$$$$$$$$$$$$$$$$$
$
*MAT_ELASTIC
$#     mid        ro         e        pr        da        db  not used        
         1    2500.03.00000E10       0.2       0.0       0.0       0.0
$
*PART
$#                                                                         title
Part          2 for Mat         1 and Elem Type         1
$#     pid     secid       mid     eosid      hgid      grav    adpopt      tmid
         2         2         1         0         0         0         0         0
*SECTION_BEAM
$#   secid    elform      shrf   qr/irid       cst     scoor       nsm     naupd
         2         1    0.8333         2         0       0.0       0.0         0
$#     ts1       ts2       tt1       tt2     nsloc     ntloc     
       0.5       0.5      0.25      0.25       0.0       0.0
$
*PART
$#                                                                         title
Part          3 for Mat         1 and Elem Type         1
$#     pid     secid       mid     eosid      hgid      grav    adpopt      tmid
         3         3         1         0         0         0         0         0
*SECTION_BEAM
$#   secid    elform      shrf   qr/irid       cst     scoor       nsm     naupd
         3         1    0.8333         2         0       0.0       0.0         0
$#     ts1       ts2       tt1       tt2     nsloc     ntloc     
       0.4       0.4       0.4       0.4       0.0       0.0
$
$
$$$$$$$$$$$$$$$$$$$$$$$$$$$$$$$$$$$$$$$$$$$$$$$$$$$$$$$$$$$$$$$$$$$$$$$$$$$$$$$$
$                              COORDINATE SYSTEMS                              $
$$$$$$$$$$$$$$$$$$$$$$$$$$$$$$$$$$$$$$$$$$$$$$$$$$$$$$$$$$$$$$$$$$$$$$$$$$$$$$$$
$
$
$
$$$$$$$$$$$$$$$$$$$$$$$$$$$$$$$$$$$$$$$$$$$$$$$$$$$$$$$$$$$$$$$$$$$$$$$$$$$$$$$$
$                               LOAD DEFINITIONS                               $
$$$$$$$$$$$$$$$$$$$$$$$$$$$$$$$$$$$$$$$$$$$$$$$$$$$$$$$$$$$$$$$$$$$$$$$$$$$$$$$$
$
*DEFINE_CURVE
$#    lcid      sidr       sfa       sfo      offa      offo    dattyp     lcint
         1         0       1.0       1.0       0.0       0.0         0         0
$#                a1                  o1  
                 0.0                 0.0
                0.01           0.0266019
                0.02           0.1901613
                0.03          -0.1220816
                0.04           -1.684236
                0.05           -2.327924
                0.06            1.676588
                0.07            7.878009
                0.08            6.413575
                0.09           -6.494596
                 0.1           -17.44923
                0.11           -9.210398
                0.12            13.63968
                0.13            24.52682
                0.14             7.79376
                0.15           -18.09876
                0.16            -22.6677
                0.17           -3.139383
                0.18            13.85677
                0.19            10.58271
$ ... 281 like lines cut
*CONSTRAINED_NODE_SET
$#    nsid       dof        tf  
         3         11.00000E20
$
$
$$$$$$$$$$$$$$$$$$$$$$$$$$$$$$$$$$$$$$$$$$$$$$$$$$$$$$$$$$$$$$$$$$$$$$$$$$$$$$$$
$                                 COUPLED NODES                                $
$$$$$$$$$$$$$$$$$$$$$$$$$$$$$$$$$$$$$$$$$$$$$$$$$$$$$$$$$$$$$$$$$$$$$$$$$$$$$$$$
$
*SET_NODE_LIST
$#     sid       da1       da2       da3       da4    solver      
         3       0.0       0.0       0.0       0.0MECH
$#    nid1      nid2      nid3      nid4      nid5      nid6      nid7      nid8
         1         2         3         4         5         6         0         0
*CONSTRAINED_NODE_SET
         4         31.00000E20
*SET_NODE_LIST
         4       0.0       0.0       0.0       0.0MECH
         1         2         3         4         5         6         0         0
$
$
$$$$$$$$$$$$$$$$$$$$$$$$$$$$$$$$$$$$$$$$$$$$$$$$$$$$$$$$$$$$$$$$$$$$$$$$$$$$$$$$
$                                SYSTEM DAMPING                                $
$$$$$$$$$$$$$$$$$$$$$$$$$$$$$$$$$$$$$$$$$$$$$$$$$$$$$$$$$$$$$$$$$$$$$$$$$$$$$$$$
$
*DAMPING_GLOBAL
$#    lcid    valdmp       stx       sty       stz       srx       sry       srz
         0       1.0       0.0       0.0       0.0       0.0       0.0       0.0
*SET_NODE_LIST
$#     sid       da1       da2       da3       da4    solver      
         1       0.0       0.0       0.0       0.0MECH
$#    nid1      nid2      nid3      nid4      nid5      nid6      nid7      nid8
         1         2         3         4         5         6         0         0
$
$
$$$$$$$$$$$$$$$$$$$$$$$$$$$$$$$$$$$$$$$$$$$$$$$$$$$$$$$$$$$$$$$$$$$$$$$$$$$$$$$$
$                             ELEMENT DEFINITIONS                              $
$$$$$$$$$$$$$$$$$$$$$$$$$$$$$$$$$$$$$$$$$$$$$$$$$$$$$$$$$$$$$$$$$$$$$$$$$$$$$$$$
$
*ELEMENT_SHELL
$#   eid     pid      n1      n2      n3      n4      n5      n6      n7      n8
       1       1       7      10      11       8       0       0       0       0
       2       1      13      16      17      14       0       0       0       0
       3       1      19      22      23      20       0       0       0       0
       4       1      25      28      29      26       0       0       0       0
       5       1      31      34      35      32       0       0       0       0
       6       1      37      40      41      38       0       0       0       0
       7       1       8      11      12       9       0       0       0       0
       8       1      14      17      18      15       0       0       0       0
       9       1      20      23      24      21       0       0       0       0
*ELEMENT_BEAM
$#   eid     pid      n1      n2      n3     rt1     rr1     rt2     rr2   local
      10       2      10      11     101       0       0       0       0       2
      11       2       7       8     100       0       0       0       0       2
      12       2      10       7     100       0       0       0       0       2
      13       2      11       8     101       0       0       0       0       2
      14       2      16      17     101       0       0       0       0       2
      15       2      13      14     100       0       0       0       0       2
      16       2      16      13     100       0       0       0       0       2
      17       2      17      14     101       0       0       0       0       2
      18       2      22      23     101       0       0       0       0       2
      19       2      19      20     100       0       0       0       0       2
      20       2      22      19     100       0       0       0       0       2
      21       2      23      20     101       0       0       0       0       2
      22       2      28      29     101       0       0       0       0       2
      23       2      25      26     100       0       0       0       0       2
      24       2      28      25     100       0       0       0       0       2
      25       2      29      26     101       0       0       0       0       2
      26       2      34      35     101       0       0       0       0       2
      27       2      31      32     100       0       0       0       0       2
      28       2      34      31     100       0       0       0       0       2
      29       2      35      32     101       0       0       0       0       2
$ ... 43 like lines cut
$
$
$$$$$$$$$$$$$$$$$$$$$$$$$$$$$$$$$$$$$$$$$$$$$$$$$$$$$$$$$$$$$$$$$$$$$$$$$$$$$$$$
$                               NODE DEFINITIONS                               $
$$$$$$$$$$$$$$$$$$$$$$$$$$$$$$$$$$$$$$$$$$$$$$$$$$$$$$$$$$$$$$$$$$$$$$$$$$$$$$$$
$
*NODE
$#   nid               x               y               z      tc      rc  
       1             0.0             0.0             0.0       0       0
       2             5.0             0.0             0.0       0       0
       3            10.0             0.0             0.0       0       0
       4             0.0             0.0             5.0       0       0
       5             5.0             0.0             5.0       0       0
       6            10.0             0.0             5.0       0       0
       7             0.0             3.0             0.0       0       0
       8             5.0             3.0             0.0       0       0
       9            10.0             3.0             0.0       0       0
      10             0.0             3.0             5.0       0       0
      11             5.0             3.0             5.0       0       0
      12            10.0             3.0             5.0       0       0
      13             0.0             6.0             0.0       0       0
      14             5.0             6.0             0.0       0       0
      15            10.0             6.0             0.0       0       0
      16             0.0             6.0             5.0       0       0
      17             5.0             6.0             5.0       0       0
      18            10.0             6.0             5.0       0       0
      19             0.0             9.0             0.0       0       0
      20             5.0             9.0             0.0       0       0
$ ... 19 like lines cut
*END
