$# LS-DYNA Keyword file created by LS-PrePost(R) V4.7.7 - 17Feb2020
$# Created on Jun-28-2024 (21:17:09)
$ solver: LS-RUN 2022R1
*KEYWORD
*TITLE
$#                                                                         title
anlsysis of pipe buckling
$
$$$$$$$$$$$$$$$$$$$$$$$$$$$$$$$$$$$$$$$$$$$$$$$$$$$$$$$$$$$$$$$$$$$$$$$$$$$$$$$$
$                              CONTROL OPTIONS                                 $
$$$$$$$$$$$$$$$$$$$$$$$$$$$$$$$$$$$$$$$$$$$$$$$$$$$$$$$$$$$$$$$$$$$$$$$$$$$$$$$$
$
*CONTROL_ENERGY
$#    hgen      rwen    slnten     rylen     irgen     
         2         2         2         2         2
*CONTROL_SHELL
$#  wrpang     esort     irnxx    istupd    theory       bwc     miter      proj
      20.0         1        -1         1         2         2         1         0
$# rotascl    intgrd    lamsht    cstyp6    thshel      
       1.0         0         0         1         0
$# psstupd   sidt4tu     cntco    itsflg    irquad    w-mode   stretch      icrq
         0         0         0         0         2       0.0       0.0         0
*CONTROL_TERMINATION
$#  endtim    endcyc     dtmin    endeng    endmas     nosol     
     0.015         0       0.0       0.0       0.0         0
*CONTROL_TIMESTEP
$#  dtinit    tssfac      isdo    tslimt     dt2ms      lctm     erode     ms1st
       0.0       0.9         0       0.0       0.0         0         0         0
$#  dt2msf   dt2mslc     imscl    unused    unused     rmscl    unused      ihdo
       0.0         0         0                           0.0                   0
$
$$$$$$$$$$$$$$$$$$$$$$$$$$$$$$$$$$$$$$$$$$$$$$$$$$$$$$$$$$$$$$$$$$$$$$$$$$$$$$$$
$                                 TIME HISTORY                                 $
$$$$$$$$$$$$$$$$$$$$$$$$$$$$$$$$$$$$$$$$$$$$$$$$$$$$$$$$$$$$$$$$$$$$$$$$$$$$$$$$
$
*DATABASE_BINARY_D3PLOT
$#      dt      lcdt      beam     npltc    psetid      
1.50000E-4         0         0         0         0
*DATABASE_BINARY_D3THDT
$#      dt      lcdt      beam     npltc    psetid      
1.50000E-4         0         0         0         0
$
$$$$$$$$$$$$$$$$$$$$$$$$$$$$$$$$$$$$$$$$$$$$$$$$$$$$$$$$$$$$$$$$$$$$$$$$$$$$$$$$
$                              DATABASE OPTIONS                                $
$$$$$$$$$$$$$$$$$$$$$$$$$$$$$$$$$$$$$$$$$$$$$$$$$$$$$$$$$$$$$$$$$$$$$$$$$$$$$$$$
$
*DATABASE_EXTENT_BINARY
$#   neiph     neips    maxint    strflg    sigflg    epsflg    rltflg    engflg
         0         0         5         1         1         1         1         1
$#  cmpflg    ieverp    beamip     dcomp      shge     stssz    n3thdt   ialemat
         0         0         4         1         1         1         2         1
$
*DATABASE_FORMAT
$#   iform   ibinary       
         0         0
*BOUNDARY_PRESCRIBED_MOTION_SET
$#    nsid       dof       vad      lcid        sf       vid     death     birth
         1         3         2         1       1.0         0       0.0       0.0
*BOUNDARY_SPC_SET
$#    nsid       cid      dofx      dofy      dofz     dofrx     dofry     dofrz
         2         0         1         1         1         1         1         1
$
$
$$$$$$$$$$$$$$$$$$$$$$$$$$$$$$$$$$$$$$$$$$$$$$$$$$$$$$$$$$$$$$$$$$$$$$$$$$$$$$$$
$                                RIGID BOUNDRIES                               $
$$$$$$$$$$$$$$$$$$$$$$$$$$$$$$$$$$$$$$$$$$$$$$$$$$$$$$$$$$$$$$$$$$$$$$$$$$$$$$$$
$
$
$
$$$$$$$$$$$$$$$$$$$$$$$$$$$$$$$$$$$$$$$$$$$$$$$$$$$$$$$$$$$$$$$$$$$$$$$$$$$$$$$$
$                             BOUNDARY DEFINITIONS                             $
$$$$$$$$$$$$$$$$$$$$$$$$$$$$$$$$$$$$$$$$$$$$$$$$$$$$$$$$$$$$$$$$$$$$$$$$$$$$$$$$
$
*SET_NODE_LIST
$#     sid       da1       da2       da3       da4    solver      
         2       0.0       0.0       0.0       0.0MECH
$#    nid1      nid2      nid3      nid4      nid5      nid6      nid7      nid8
         1         2         3         4         5         6         7         8
         9        10        11        12        13        14        15        16
        17        18        19        20        21        22        23        24
        25        27       150       249       348       447       546       645
       744       843       942      1041      1140      1239      1338      1437
      1536      1635      1734      1833      1932      2031      2130      2229
      2328      2427      2526      2527      2528      2529      2530      2531
      2532      2533      2534      2535      2536      2537      2538      2539
      2540      2541      2542      2543      2544      2545      2546      2547
      2548      2549      2551      2673      2772      2871      2970      3069
      3168      3267      3366      3465      3564      3663      3762      3861
      3960      4059      4158      4257      4356      4455      4554      4653
      4752      4851      4950      4951      4952      4953      4954      4955
      4956      4957      4958      4959      4960      4961      4962      4963
      4964      4965      4966      4967      4968      4969      4970      4971
      4972      4973      4975      5097      5196      5295      5394      5493
      5592      5691      5790      5889      5988      6087      6186      6285
      6384      6483      6582      6681      6780      6879      6978      7077
      7176      7275      7374      7375      7376      7377      7378      7379
      7380      7381      7382      7383      7384      7385      7386      7387
$ ... 4 like lines cut
$
$
$$$$$$$$$$$$$$$$$$$$$$$$$$$$$$$$$$$$$$$$$$$$$$$$$$$$$$$$$$$$$$$$$$$$$$$$$$$$$$$$
$                              CONTACT DEFINITIONS                             $
$$$$$$$$$$$$$$$$$$$$$$$$$$$$$$$$$$$$$$$$$$$$$$$$$$$$$$$$$$$$$$$$$$$$$$$$$$$$$$$$
$
*CONTACT_AUTOMATIC_SINGLE_SURFACE
$#     cid                                                                 title
$
$$$$$$$$$$$$$$$$$$$$$$$$$$$$$$$$$$$$$$$$$$$$$$$$$$$$$$$$$$$$$$$$$$$$$$$$$$$$$$$$
$                              CONTROL OPTIONS                                 $
$$$$$$$$$$$$$$$$$$$$$$$$$$$$$$$$$$$$$$$$$$$$$$$$$$$$$$$$$$$$$$$$$$$$$$$$$$$$$$$$
$
$#    ssid      msid     sstyp     mstyp    sboxid    mboxid       spr       mpr
         0         0         0         0         0         0         0         0
$#      fs        fd        dc        vc       vdc    penchk        bt        dt
       0.1       0.1       0.0       0.0       0.0         0       0.01.000000E7
$#     sfs       sfm       sst       mst      sfst      sfmt       fsf       vsf
       1.0       1.0       0.0       0.0       1.0       1.0       1.0       1.0
$
$
$$$$$$$$$$$$$$$$$$$$$$$$$$$$$$$$$$$$$$$$$$$$$$$$$$$$$$$$$$$$$$$$$$$$$$$$$$$$$$$$
$                              PARTS DEFINITIONS                               $
$$$$$$$$$$$$$$$$$$$$$$$$$$$$$$$$$$$$$$$$$$$$$$$$$$$$$$$$$$$$$$$$$$$$$$$$$$$$$$$$
$
$
*PART
$#                                                                         title
Part          1 for Mat         1 and Elem Type         1
$#     pid     secid       mid     eosid      hgid      grav    adpopt      tmid
         1         1         1         0         1         0         0         0
$
$
$$$$$$$$$$$$$$$$$$$$$$$$$$$$$$$$$$$$$$$$$$$$$$$$$$$$$$$$$$$$$$$$$$$$$$$$$$$$$$$$
$                             SECTION DEFINITIONS                              $
$$$$$$$$$$$$$$$$$$$$$$$$$$$$$$$$$$$$$$$$$$$$$$$$$$$$$$$$$$$$$$$$$$$$$$$$$$$$$$$$
$
*SECTION_SHELL
$#   secid    elform      shrf       nip     propt   qr/irid     icomp     setyp
         1         7    0.8333         5       1.0         0         0         1
$#      t1        t2        t3        t4      nloc     marea      idof    edgset
    0.0025    0.0025    0.0025    0.0025       0.0       0.0       0.0         0
$
$
$$$$$$$$$$$$$$$$$$$$$$$$$$$$$$$$$$$$$$$$$$$$$$$$$$$$$$$$$$$$$$$$$$$$$$$$$$$$$$$$
$                             MATERIAL DEFINITIONS                             $
$$$$$$$$$$$$$$$$$$$$$$$$$$$$$$$$$$$$$$$$$$$$$$$$$$$$$$$$$$$$$$$$$$$$$$$$$$$$$$$$
$
*MAT_PLASTIC_KINEMATIC
$#     mid        ro         e        pr      sigy      etan      beta    
         1    7800.02.07000E11      0.273.000000E81.00000E10       1.0
$#     src       srp        fs        vp  
       0.0       0.0       0.0       0.0
$
*HOURGLASS
$#    hgid       ihq        qm       ibq        q1        q2    qb/vdc        qw
         1         5       0.1         0       1.5      0.06       0.0       0.0
$
$
$$$$$$$$$$$$$$$$$$$$$$$$$$$$$$$$$$$$$$$$$$$$$$$$$$$$$$$$$$$$$$$$$$$$$$$$$$$$$$$$
$                              COORDINATE SYSTEMS                              $
$$$$$$$$$$$$$$$$$$$$$$$$$$$$$$$$$$$$$$$$$$$$$$$$$$$$$$$$$$$$$$$$$$$$$$$$$$$$$$$$
$
$
$
$$$$$$$$$$$$$$$$$$$$$$$$$$$$$$$$$$$$$$$$$$$$$$$$$$$$$$$$$$$$$$$$$$$$$$$$$$$$$$$$
$                               LOAD DEFINITIONS                               $
$$$$$$$$$$$$$$$$$$$$$$$$$$$$$$$$$$$$$$$$$$$$$$$$$$$$$$$$$$$$$$$$$$$$$$$$$$$$$$$$
$
*DEFINE_CURVE
$#    lcid      sidr       sfa       sfo      offa      offo    dattyp     lcint
         1         0       1.0       1.0       0.0       0.0         0         0
$#                a1                  o1  
                 0.0                 0.0
                0.01                -0.4
*SET_NODE_LIST
$#     sid       da1       da2       da3       da4    solver      
         1       0.0       0.0       0.0       0.0MECH
$#    nid1      nid2      nid3      nid4      nid5      nid6      nid7      nid8
        26       125       126       127       128       129       130       131
       132       133       134       135       136       137       138       139
       140       141       142       143       144       145       146       147
       148       149       248       347       446       545       644       743
       842       941      1040      1139      1238      1337      1436      1535
      1634      1733      1832      1931      2030      2129      2228      2327
      2426      2525      2550      2649      2650      2651      2652      2653
      2654      2655      2656      2657      2658      2659      2660      2661
      2662      2663      2664      2665      2666      2667      2668      2669
      2670      2671      2672      2771      2870      2969      3068      3167
      3266      3365      3464      3563      3662      3761      3860      3959
      4058      4157      4256      4355      4454      4553      4652      4751
      4850      4949      4974      5073      5074      5075      5076      5077
      5078      5079      5080      5081      5082      5083      5084      5085
      5086      5087      5088      5089      5090      5091      5092      5093
      5094      5095      5096      5195      5294      5393      5492      5591
      5690      5789      5888      5987      6086      6185      6284      6383
      6482      6581      6680      6779      6878      6977      7076      7175
      7274      7373      7397      7398      7399      7400      7401      7402
      7403      7404      7405      7406      7407      7408      7409      7410
$ ... 4 like lines cut
$
$
$$$$$$$$$$$$$$$$$$$$$$$$$$$$$$$$$$$$$$$$$$$$$$$$$$$$$$$$$$$$$$$$$$$$$$$$$$$$$$$$
$                             ELEMENT DEFINITIONS                              $
$$$$$$$$$$$$$$$$$$$$$$$$$$$$$$$$$$$$$$$$$$$$$$$$$$$$$$$$$$$$$$$$$$$$$$$$$$$$$$$$
$
*ELEMENT_SHELL
$#   eid     pid      n1      n2      n3      n4      n5      n6      n7      n8
       1       1       1       3     249     150       0       0       0       0
       2       1       3       4     348     249       0       0       0       0
       3       1       4       5     447     348       0       0       0       0
       4       1       5       6     546     447       0       0       0       0
       5       1       6       7     645     546       0       0       0       0
       6       1       7       8     744     645       0       0       0       0
       7       1       8       9     843     744       0       0       0       0
       8       1       9      10     942     843       0       0       0       0
       9       1      10      11    1041     942       0       0       0       0
      10       1      11      12    1140    1041       0       0       0       0
      11       1      12      13    1239    1140       0       0       0       0
      12       1      13      14    1338    1239       0       0       0       0
      13       1      14      15    1437    1338       0       0       0       0
      14       1      15      16    1536    1437       0       0       0       0
      15       1      16      17    1635    1536       0       0       0       0
      16       1      17      18    1734    1635       0       0       0       0
      17       1      18      19    1833    1734       0       0       0       0
      18       1      19      20    1932    1833       0       0       0       0
      19       1      20      21    2031    1932       0       0       0       0
      20       1      21      22    2130    2031       0       0       0       0
$ ... 9580 like lines cut
$
$
$$$$$$$$$$$$$$$$$$$$$$$$$$$$$$$$$$$$$$$$$$$$$$$$$$$$$$$$$$$$$$$$$$$$$$$$$$$$$$$$
$                               NODE DEFINITIONS                               $
$$$$$$$$$$$$$$$$$$$$$$$$$$$$$$$$$$$$$$$$$$$$$$$$$$$$$$$$$$$$$$$$$$$$$$$$$$$$$$$$
$
*NODE
$#   nid               x               y               z      tc      rc  
       1            0.15             0.0             0.0       0       0
       2             0.0            0.15             0.0       0       0
       3       0.1496788       0.0098105             0.0       0       0
       4       0.1487167       0.0195789             0.0       0       0
       5       0.1471178       0.0292635             0.0       0       0
       6       0.1448889       0.0388229             0.0       0       0
       7       0.1420395       0.0482159             0.0       0       0
       8       0.1385819       0.0574025             0.0       0       0
       9       0.1345309       0.0663433             0.0       0       0
      10       0.1299038           0.075             0.0       0       0
      11       0.1247204       0.0833355             0.0       0       0
      12        0.119003       0.0913142             0.0       0       0
      13        0.112776       0.0989019             0.0       0       0
      14        0.106066        0.106066             0.0       0       0
      15       0.0989019        0.112776             0.0       0       0
      16       0.0913142        0.119003             0.0       0       0
      17       0.0833355       0.1247204             0.0       0       0
      18           0.075       0.1299038             0.0       0       0
      19       0.0663433       0.1345309             0.0       0       0
      20       0.0574025       0.1385819             0.0       0       0
$ ... 9676 like lines cut
*END
